STAAD SPACE DREAM_HOUSE_MUNDRA_2
START JOB INFORMATION
ENGINEER DATE 04-Jun-26
END JOB INFORMATION
INPUT WIDTH 79
UNIT METER KN
JOINT COORDINATES
1 0 0 0; 2 4.80001 0 0; 3 7.80002 0 0; 4 11.8 0 0; 5 15.8 0 0; 6 17.8 0 0;
7 0 0 4.00001; 8 4.80001 0 4.00001; 9 7.80002 0 4.00001; 10 11.8 0 4.00001;
11 15.8 0 4.00001; 12 17.8 0 4.00001; 13 0 0 7.00001; 14 4.80001 0 7.00001;
15 7.80002 0 7.00001; 16 11.8 0 7.00001; 17 15.8 0 7.00001; 18 17.8 0 7.00001;
19 0 0 10; 20 4.80001 0 10; 21 7.80002 0 10; 22 11.8 0 10; 23 15.8 0 10;
24 17.8 0 10; 25 0 3.30001 0; 26 4.80001 3.30001 0; 27 7.80002 3.30001 0;
28 11.8 3.30001 0; 29 15.8 3.30001 0; 30 17.8 3.30001 0; 31 0 3.30001 4.00001;
32 4.80001 3.30001 4.00001; 33 7.80002 3.30001 4.00001;
34 11.8 3.30001 4.00001; 35 15.8 3.30001 4.00001; 36 17.8 3.30001 4.00001;
37 0 3.30001 7.00001; 38 4.80001 3.30001 7.00001; 39 7.80002 3.30001 7.00001;
40 11.8 3.30001 7.00001; 41 15.8 3.30001 7.00001; 42 17.8 3.30001 7.00001;
43 0 3.30001 10; 44 4.80001 3.30001 10; 45 7.80002 3.30001 10;
46 11.8 3.30001 10; 47 15.8 3.30001 10; 48 17.8 3.30001 10; 49 0 6.60001 0;
50 4.80001 6.60001 0; 51 7.80002 6.60001 0; 52 11.8 6.60001 0;
53 15.8 6.60001 0; 54 17.8 6.60001 0; 55 0 6.60001 4.00001;
56 4.80001 6.60001 4.00001; 57 7.80002 6.60001 4.00001;
58 11.8 6.60001 4.00001; 59 15.8 6.60001 4.00001; 60 17.8 6.60001 4.00001;
61 0 6.60001 7.00001; 62 4.80001 6.60001 7.00001; 63 7.80002 6.60001 7.00001;
64 11.8 6.60001 7.00001; 65 15.8 6.60001 7.00001; 66 17.8 6.60001 7.00001;
67 0 6.60001 10; 68 4.80001 6.60001 10; 69 7.80002 6.60001 10;
# ... 173 like lines cut
MEMBER INCIDENCES
1 1 2; 2 2 3; 3 3 4; 4 4 5; 5 5 6; 6 7 8; 7 8 9; 8 9 10; 9 10 11; 10 11 12;
11 13 14; 12 14 15; 13 15 16; 14 16 17; 15 17 18; 16 19 20; 17 20 21; 18 21 22;
19 22 23; 20 23 24; 21 1 7; 22 2 8; 23 3 9; 24 4 10; 25 5 11; 26 6 12; 27 7 13;
28 8 14; 29 9 15; 30 10 16; 31 11 17; 32 12 18; 33 13 19; 34 14 20; 35 15 21;
36 16 22; 37 17 23; 38 18 24; 39 25 73; 40 26 82; 41 27 88; 42 28 96;
43 29 104; 44 31 147; 45 32 151; 46 33 154; 47 34 158; 48 35 162; 49 37 202;
50 38 206; 51 39 209; 52 40 213; 53 41 217; 54 43 257; 55 44 261; 56 45 264;
57 46 268; 58 47 272; 59 25 75; 60 26 32; 61 27 33; 62 28 34; 63 29 35;
64 30 108; 65 31 165; 66 32 38; 68 34 40; 69 35 41; 70 36 182; 71 37 220;
72 38 44; 73 39 45; 74 40 46; 75 41 47; 76 42 237; 77 49 274; 78 50 283;
79 51 289; 80 52 297; 81 53 305; 82 55 348; 83 56 352; 84 57 355; 85 58 359;
86 59 363; 87 61 403; 88 62 407; 89 63 410; 90 64 414; 91 65 418; 92 67 458;
93 68 462; 94 69 465; 95 70 469; 96 71 473; 97 49 276; 98 50 56; 99 51 57;
100 52 58; 101 53 59; 102 54 309; 103 55 366; 104 56 62; 106 58 64; 107 59 65;
108 60 383; 109 61 421; 110 62 68; 111 63 69; 112 64 70; 113 65 71; 114 66 438;
115 1 25; 116 2 26; 117 3 27; 118 4 28; 119 5 29; 120 6 30; 121 7 31; 122 8 32;
123 9 33; 124 10 34; 125 11 35; 126 12 36; 127 13 37; 128 14 38; 129 15 39;
130 16 40; 131 17 41; 132 18 42; 133 19 43; 134 20 44; 135 21 45; 136 22 46;
137 23 47; 138 24 48; 139 25 49; 140 26 50; 141 27 51; 142 28 52; 143 29 53;
144 30 54; 145 31 55; 146 32 56; 147 33 57; 148 34 58; 149 35 59; 150 36 60;
# ... 29 like lines cut
ELEMENT INCIDENCES SHELL
165 25 73 74 75; 167 73 76 77 74; 169 76 78 79 77; 171 78 80 81 79;
173 80 82 83 81; 175 82 84 85 83; 177 84 86 87 85; 179 86 88 89 87;
181 88 90 91 89; 183 90 92 93 91; 185 92 94 95 93; 187 94 96 97 95;
189 96 98 99 97; 191 98 100 101 99; 193 100 102 103 101; 195 102 104 105 103;
197 104 106 107 105; 199 106 30 108 107; 201 75 74 109 110; 202 74 77 111 109;
203 77 79 112 111; 204 79 81 113 112; 205 81 83 114 113; 206 83 85 115 114;
207 85 87 116 115; 208 87 89 117 116; 209 89 91 118 117; 210 91 93 119 118;
211 93 95 120 119; 212 95 97 121 120; 213 97 99 122 121; 214 99 101 123 122;
215 101 103 124 123; 216 103 105 125 124; 217 105 107 126 125;
219 107 108 127 126; 221 110 109 128 129; 222 109 111 130 128;
223 111 112 131 130; 224 112 113 132 131; 225 113 114 133 132;
226 114 115 134 133; 227 115 116 135 134; 228 116 117 136 135;
229 117 118 137 136; 230 118 119 138 137; 231 119 120 139 138;
232 120 121 140 139; 233 121 122 141 140; 234 122 123 142 141;
235 123 124 143 142; 236 124 125 144 143; 237 125 126 145 144;
239 126 127 146 145; 241 129 128 147 31; 243 128 130 148 147;
245 130 131 149 148; 247 131 132 150 149; 249 132 133 151 150;
251 133 134 152 151; 253 134 135 153 152; 255 135 136 154 153;
257 136 137 155 154; 259 137 138 156 155; 261 138 139 157 156;
263 139 140 158 157; 265 140 141 159 158; 267 141 142 160 159;
# ... 94 like lines cut
ELEMENT PROPERTY
165 167 169 171 173 175 177 179 181 183 185 187 189 191 193 195 197 199 201 -
202 TO 217 219 221 TO 237 239 241 243 245 247 249 251 253 255 257 259 261 -
263 265 267 269 271 273 274 276 TO 282 287 TO 292 294 296 TO 302 307 TO 312 -
314 316 318 320 322 324 326 328 338 340 342 344 346 348 349 351 TO 367 369 -
371 TO 387 389 391 393 395 397 399 401 403 405 407 409 411 413 415 417 419 -
421 423 424 427 429 431 433 435 437 439 441 443 445 447 449 451 453 455 457 -
459 461 463 TO 479 481 483 TO 499 501 503 505 507 509 511 513 515 517 519 -
521 523 525 527 529 531 533 535 536 538 TO 554 556 558 TO 574 576 578 580 -
582 584 586 588 590 592 594 596 598 600 602 604 606 608 610 611 613 TO 629 -
631 633 TO 649 651 653 655 657 659 661 663 665 667 669 671 673 675 677 679 -
681 683 685 686 THICKNESS 0.15
DEFINE MATERIAL START
ISOTROPIC CONCRETE
E 2.17184e+07
POISSON 0.17
DENSITY 23.5615
ALPHA 5.5e-06
DAMP 0.05
G 9.28137e+06
TYPE CONCRETE
STRENGTH FCU 27578.9
ISOTROPIC STEEL
E 1.99947e+08
POISSON 0.3
DENSITY 76.8191
ALPHA 6.5e-06
DAMP 0.03
G 7.7221e+07
TYPE STEEL
STRENGTH RY 1.5 RT 1.2
END DEFINE MATERIAL
MEMBER PROPERTY
115 120 133 138 139 144 157 162 PRIS YD 0.45 ZD 0.3
116 TO 119 121 126 127 132 134 TO 137 140 TO 143 145 150 151 156 158 TO 160 -
161 PRIS YD 0.5 ZD 0.3
122 TO 125 128 TO 131 146 TO 149 152 TO 155 PRIS YD 0.6 ZD 0.3
5 10 15 20 43 48 53 58 81 86 91 96 194 196 270 272 345 347 420 422 456 458 -
532 534 607 609 682 684 PRIS YD 0.45 ZD 0.23
1 TO 4 6 TO 9 11 TO 14 16 TO 19 21 TO 42 44 TO 47 49 TO 52 54 TO 57 -
59 TO 66 68 TO 80 82 TO 85 87 TO 90 92 TO 95 97 TO 104 106 TO 114 163 164 -
166 168 170 172 174 176 178 180 182 184 186 188 190 192 198 200 218 220 238 -
240 242 244 246 248 250 252 254 256 258 260 262 264 266 268 275 293 295 313 -
315 317 319 321 323 325 327 329 331 333 335 337 339 341 343 350 368 370 388 -
390 392 394 396 398 400 402 404 406 408 410 412 414 416 418 425 426 428 430 -
432 434 436 438 440 442 444 446 448 450 452 454 460 462 480 482 500 502 504 -
506 508 510 512 514 516 518 520 522 524 526 528 530 537 555 557 575 577 579 -
581 583 585 587 589 591 593 595 597 599 601 603 605 612 630 632 650 652 654 -
656 658 660 662 664 666 668 670 672 674 676 678 680 PRIS YD 0.6 ZD 0.3
CONSTANTS
MATERIAL CONCRETE ALL
SUPPORTS
1 TO 24 FIXED
LOAD 1 LOADTYPE Dead  TITLE DEAD LOAD
SELFWEIGHT Y -1 
FLOOR LOAD
YRANGE 0 0 FLOAD -1.5 GY
MEMBER LOAD
1 TO 4 6 TO 9 11 TO 14 16 TO 19 21 TO 25 27 TO 31 33 TO 37 39 44 49 54 59 -
60 TO 63 66 68 69 71 TO 73 75 77 80 82 87 92 163 164 166 168 170 172 174 176 -
178 180 182 184 186 188 190 192 200 220 240 242 244 246 248 250 252 254 256 -
258 260 262 264 266 268 275 295 315 317 319 321 323 325 327 329 331 333 335 -
337 339 341 343 350 370 390 392 394 396 398 400 402 404 406 408 410 412 414 -
416 418 425 428 430 432 434 436 438 440 442 444 446 448 450 452 454 502 504 -
506 508 510 512 514 516 518 520 522 524 526 528 530 577 579 581 583 585 587 -
589 591 593 595 597 599 601 603 605 652 654 656 658 660 662 664 666 668 670 -
674 676 678 UNI GY -15
FLOOR LOAD
YRANGE 3.3 3.3 FLOAD -1.5 GY
YRANGE 6.6 6.6 FLOAD -2 GY
LOAD 2 LOADTYPE Live  TITLE LIVE LOAD
FLOOR LOAD
YRANGE 3.3 3.3 FLOAD -2 GY
YRANGE 6.6 6.6 FLOAD -2 GY
LOAD COMB 3 COMBINATION LOAD CASE 1
1 1.5 2 1.5 
LOAD COMB 4 COMBINATION LOAD CASE 2
1 1.2 2 1.2 
LOAD COMB 5 COMBINATION LOAD CASE 3
1 1.0 2 1.0 
PERFORM ANALYSIS PRINT STATICS CHECK
START CONCRETE DESIGN
CODE INDIAN
CLEAR 0.04 MEMB 1 TO 66 68 TO 104 106 TO 164 166 168 170 172 174 176 178 180 -
182 184 186 188 190 192 194 196 198 200 218 220 238 240 242 244 246 248 250 -
252 254 256 258 260 262 264 266 268 270 272 275 293 295 313 315 317 319 321 -
323 325 327 329 331 333 335 337 339 341 343 345 347 350 368 370 388 390 392 -
394 396 398 400 402 404 406 408 410 412 414 416 418 420 422 425 426 428 430 -
432 434 436 438 440 442 444 446 448 450 452 454 456 458 460 462 480 482 500 -
502 504 506 508 510 512 514 516 518 520 522 524 526 528 530 532 534 537 555 -
557 575 577 579 581 583 585 587 589 591 593 595 597 599 601 603 605 607 609 -
612 630 632 650 652 654 656 658 660 662 664 666 668 670 672 674 676 678 680 -
682 684
FC 25000 MEMB 1 TO 66 68 TO 104 106 TO 164 166 168 170 172 174 176 178 180 -
182 184 186 188 190 192 194 196 198 200 218 220 238 240 242 244 246 248 250 -
252 254 256 258 260 262 264 266 268 270 272 275 293 295 313 315 317 319 321 -
323 325 327 329 331 333 335 337 339 341 343 345 347 350 368 370 388 390 392 -
394 396 398 400 402 404 406 408 410 412 414 416 418 420 422 425 426 428 430 -
432 434 436 438 440 442 444 446 448 450 452 454 456 458 460 462 480 482 500 -
502 504 506 508 510 512 514 516 518 520 522 524 526 528 530 532 534 537 555 -
557 575 577 579 581 583 585 587 589 591 593 595 597 599 601 603 605 607 609 -
612 630 632 650 652 654 656 658 660 662 664 666 668 670 672 674 676 678 680 -
682 684
FYMAIN 500000 MEMB 1 TO 66 68 TO 104 106 TO 164 166 168 170 172 174 176 178 -
180 182 184 186 188 190 192 194 196 198 200 218 220 238 240 242 244 246 248 -
250 252 254 256 258 260 262 264 266 268 270 272 275 293 295 313 315 317 319 -
321 323 325 327 329 331 333 335 337 339 341 343 345 347 350 368 370 388 390 -
392 394 396 398 400 402 404 406 408 410 412 414 416 418 420 422 425 426 428 -
430 432 434 436 438 440 442 444 446 448 450 452 454 456 458 460 462 480 482 -
500 502 504 506 508 510 512 514 516 518 520 522 524 526 528 530 532 534 537 -
555 557 575 577 579 581 583 585 587 589 591 593 595 597 599 601 603 605 607 -
609 612 630 632 650 652 654 656 658 660 662 664 666 668 670 672 674 676 678 -
680 682 684
FYSEC 500000 ALL
DESIGN BEAM 1 TO 66 68 TO 104 106 TO 114 163 164 166 168 170 172 174 176 178 -
180 182 184 186 188 190 192 194 196 198 200 218 220 238 240 242 244 246 248 -
250 252 254 256 258 260 262 264 266 268 270 272 275 293 295 313 315 317 319 -
321 323 325 327 329 331 333 335 337 339 341 343 345 347 350 368 370 388 390 -
392 394 396 398 400 402 404 406 408 410 412 414 416 418 420 422 425 426 428 -
430 432 434 436 438 440 442 444 446 448 450 452 454 456 458 460 462 480 482 -
500 502 504 506 508 510 512 514 516 518 520 522 524 526 528 530 532 534 537 -
555 557 575 577 579 581 583 585 587 589 591 593 595 597 599 601 603 605 607 -
609 612 630 632 650 652 654 656 658 660 662 664 666 668 670 672 674 676 678 -
680 682 684
DESIGN COLUMN 115 TO 162
DESIGN ELEMENT 165 167 169 171 173 175 177 179 181 183 185 187 189 191 193 -
195 197 199 201 TO 217 219 221 TO 237 239 241 243 245 247 249 251 253 255 -
257 259 261 263 265 267 269 271 273 274 276 TO 282 287 TO 292 294 -
296 TO 302 307 TO 312 314 316 318 320 322 324 326 328 338 340 342 344 346 -
348 349 351 TO 367 369 371 TO 387 389 391 393 395 397 399 401 403 405 407 -
409 411 413 415 417 419 421 423 424 427 429 431 433 435 437 439 441 443 445 -
447 449 451 453 455 457 459 461 463 TO 479 481 483 TO 499 501 503 505 507 -
509 511 513 515 517 519 521 523 525 527 529 531 533 535 536 538 TO 554 556 -
558 TO 574 576 578 580 582 584 586 588 590 592 594 596 598 600 602 604 606 -
608 610 611 613 TO 629 631 633 TO 649 651 653 655 657 659 661 663 665 667 -
669 671 673 675 677 679 681 683 685 686
CONCRETE TAKE
END CONCRETE DESIGN
FINISH
